<?xml version="1.0" encoding="utf-8"?>
<!DOCTYPE population SYSTEM "http://www.matsim.org/files/dtd/population_v6.dtd">

<population>



<!-- ====================================================================== -->

	<person id="1">
		<plan score="53.50055396734682" selected="yes">
			<activity type="h" link="1" x="-25000.0" y="0.0" end_time="06:00:00" >
			</activity>
			<leg mode="car">
				<route type="links" start_link="1" end_link="20" trav_time="undefined" distance="25000.0">1 6 15 20</route>
			</leg>
			<activity type="w" link="20" x="10000.0" y="0.0" max_dur="00:10:00" >
			</activity>
			<leg mode="car">
				<route type="links" start_link="20" end_link="20" trav_time="undefined" distance="0.0">20</route>
			</leg>
			<activity type="w" link="20" x="10000.0" y="0.0" max_dur="03:30:00" >
			</activity>
			<leg mode="car">
				<route type="links" start_link="20" end_link="1" trav_time="undefined" distance="65000.0">20 21 22 23 1</route>
			</leg>
			<activity type="h" link="1" x="-25000.0" y="0.0" >
			</activity>
		</plan>

	</person>

<!-- ====================================================================== -->

	<person id="10">
		<plan score="63.308377053480584" selected="yes">
			<activity type="h" link="1" x="-25000.0" y="0.0" end_time="06:00:00" >
			</activity>
			<leg mode="car">
				<route type="links" start_link="1" end_link="20" trav_time="undefined" distance="25000.0">1 6 15 20</route>
			</leg>
			<activity type="w" link="20" x="10000.0" y="0.0" max_dur="00:30:00" >
			</activity>
			<leg mode="car">
				<route type="links" start_link="20" end_link="1" trav_time="undefined" distance="65000.0">20 21 22 23 1</route>
			</leg>
			<activity type="h" link="1" x="-25000.0" y="0.0" >
			</activity>
		</plan>

	</person>

<!-- ====================================================================== -->

	<person id="100">
		<plan score="63.31604304542119" selected="yes">
			<activity type="h" link="1" x="-25000.0" y="0.0" end_time="06:00:00" >
			</activity>
			<leg mode="car">
				<route type="links" start_link="1" end_link="20" trav_time="undefined" distance="25000.0">1 6 15 20</route>
			</leg>
			<activity type="w" link="20" x="10000.0" y="0.0" max_dur="00:30:00" >
			</activity>
			<leg mode="car">
				<route type="links" start_link="20" end_link="1" trav_time="undefined" distance="65000.0">20 21 22 23 1</route>
			</leg>
			<activity type="h" link="1" x="-25000.0" y="0.0" >
			</activity>
		</plan>

	</person>

<!-- ====================================================================== -->

	<person id="11">
		<plan score="63.32626421445825" selected="yes">
			<activity type="h" link="1" x="-25000.0" y="0.0" end_time="06:00:00" >
			</activity>
			<leg mode="car">
				<route type="links" start_link="1" end_link="20" trav_time="undefined" distance="25000.0">1 6 15 20</route>
			</leg>
			<activity type="w" link="20" x="10000.0" y="0.0" max_dur="00:30:00" >
			</activity>
			<leg mode="car">
				<route type="links" start_link="20" end_link="1" trav_time="undefined" distance="65000.0">20 21 22 23 1</route>
			</leg>
			<activity type="h" link="1" x="-25000.0" y="0.0" >
			</activity>
		</plan>

	</person>

<!-- ====================================================================== -->

	<person id="12">
		<plan score="63.33392997608267" selected="yes">
			<activity type="h" link="1" x="-25000.0" y="0.0" end_time="06:00:00" >
			</activity>
			<leg mode="car">
				<route type="links" start_link="1" end_link="20" trav_time="undefined" distance="25000.0">1 6 15 20</route>
			</leg>
			<activity type="w" link="20" x="10000.0" y="0.0" max_dur="00:30:00" >
			</activity>
			<leg mode="car">
				<route type="links" start_link="20" end_link="1" trav_time="undefined" distance="65000.0">20 21 22 23 1</route>
			</leg>
			<activity type="h" link="1" x="-25000.0" y="0.0" >
			</activity>
		</plan>

	</person>

<!-- ====================================================================== -->

	<person id="13">
		<plan score="63.34415083805805" selected="yes">
			<activity type="h" link="1" x="-25000.0" y="0.0" end_time="06:00:00" >
			</activity>
			<leg mode="car">
				<route type="links" start_link="1" end_link="20" trav_time="undefined" distance="25000.0">1 6 15 20</route>
			</leg>
			<activity type="w" link="20" x="10000.0" y="0.0" max_dur="00:30:00" >
			</activity>
			<leg mode="car">
				<route type="links" start_link="20" end_link="1" trav_time="undefined" distance="65000.0">20 21 22 23 1</route>
			</leg>
			<activity type="h" link="1" x="-25000.0" y="0.0" >
			</activity>
		</plan>

	</person>

<!-- ====================================================================== -->

	<person id="14">
		<plan score="63.35437152459339" selected="yes">
			<activity type="h" link="1" x="-25000.0" y="0.0" end_time="06:00:00" >
			</activity>
			<leg mode="car">
				<route type="links" start_link="1" end_link="20" trav_time="undefined" distance="25000.0">1 6 15 20</route>
			</leg>
			<activity type="w" link="20" x="10000.0" y="0.0" max_dur="00:30:00" >
			</activity>
			<leg mode="car">
				<route type="links" start_link="20" end_link="1" trav_time="undefined" distance="65000.0">20 21 22 23 1</route>
			</leg>
			<activity type="h" link="1" x="-25000.0" y="0.0" >
			</activity>
		</plan>

	</person>

<!-- ====================================================================== -->

	<person id="15">
		<plan score="63.362036924372816" selected="yes">
			<activity type="h" link="1" x="-25000.0" y="0.0" end_time="06:00:00" >
			</activity>
			<leg mode="car">
				<route type="links" start_link="1" end_link="20" trav_time="undefined" distance="25000.0">1 6 15 20</route>
			</leg>
			<activity type="w" link="20" x="10000.0" y="0.0" max_dur="00:30:00" >
			</activity>
			<leg mode="car">
				<route type="links" start_link="20" end_link="1" trav_time="undefined" distance="65000.0">20 21 22 23 1</route>
			</leg>
			<activity type="h" link="1" x="-25000.0" y="0.0" >
			</activity>
		</plan>

	</person>

<!-- ====================================================================== -->

	<person id="16">
		<plan score="63.37225730392982" selected="yes">
			<activity type="h" link="1" x="-25000.0" y="0.0" end_time="06:00:00" >
			</activity>
			<leg mode="car">
				<route type="links" start_link="1" end_link="20" trav_time="undefined" distance="25000.0">1 6 15 20</route>
			</leg>
			<activity type="w" link="20" x="10000.0" y="0.0" max_dur="00:30:00" >
			</activity>
			<leg mode="car">
				<route type="links" start_link="20" end_link="1" trav_time="undefined" distance="65000.0">20 21 22 23 1</route>
			</leg>
			<activity type="h" link="1" x="-25000.0" y="0.0" >
			</activity>
		</plan>

	</person>

<!-- ====================================================================== -->

	<person id="17">
		<plan score="63.37992247349537" selected="yes">
			<activity type="h" link="1" x="-25000.0" y="0.0" end_time="06:00:00" >
			</activity>
			<leg mode="car">
				<route type="links" start_link="1" end_link="20" trav_time="undefined" distance="25000.0">1 6 15 20</route>
			</leg>
			<activity type="w" link="20" x="10000.0" y="0.0" max_dur="00:30:00" >
			</activity>
			<leg mode="car">
				<route type="links" start_link="20" end_link="1" trav_time="undefined" distance="65000.0">20 21 22 23 1</route>
			</leg>
			<activity type="h" link="1" x="-25000.0" y="0.0" >
			</activity>
		</plan>

	</person>

<!-- ====================================================================== -->

	<person id="18">
		<plan score="63.39014254612706" selected="yes">
			<activity type="h" link="1" x="-25000.0" y="0.0" end_time="06:00:00" >
			</activity>
			<leg mode="car">
				<route type="links" start_link="1" end_link="20" trav_time="undefined" distance="25000.0">1 6 15 20</route>
			</leg>
			<activity type="w" link="20" x="10000.0" y="0.0" max_dur="00:30:00" >
			</activity>
			<leg mode="car">
				<route type="links" start_link="20" end_link="1" trav_time="undefined" distance="65000.0">20 21 22 23 1</route>
			</leg>
			<activity type="h" link="1" x="-25000.0" y="0.0" >
			</activity>
		</plan>

	</person>

<!-- ====================================================================== -->

	<person id="19">
		<plan score="63.400362443396645" selected="yes">
			<activity type="h" link="1" x="-25000.0" y="0.0" end_time="06:00:00" >
			</activity>
			<leg mode="car">
				<route type="links" start_link="1" end_link="20" trav_time="undefined" distance="25000.0">1 6 15 20</route>
			</leg>
			<activity type="w" link="20" x="10000.0" y="0.0" max_dur="00:30:00" >
			</activity>
			<leg mode="car">
				<route type="links" start_link="20" end_link="1" trav_time="undefined" distance="65000.0">20 21 22 23 1</route>
			</leg>
			<activity type="h" link="1" x="-25000.0" y="0.0" >
			</activity>
		</plan>

	</person>

<!-- ====================================================================== -->

	<person id="2">
		<plan score="85.7778096885166" selected="yes">
			<activity type="h" link="1" x="-25000.0" y="0.0" end_time="05:59:00" >
			</activity>
			<leg mode="car">
				<route type="links" start_link="1" end_link="20" trav_time="undefined" distance="25000.0">1 6 15 20</route>
			</leg>
			<activity type="w" link="20" x="10000.0" y="0.0" max_dur="02:30:00" >
			</activity>
			<leg mode="car">
				<route type="links" start_link="20" end_link="1" trav_time="undefined" distance="65000.0">20 21 22 23 1</route>
			</leg>
			<activity type="h" link="1" x="-25000.0" y="0.0" >
			</activity>
		</plan>

	</person>

<!-- ====================================================================== -->

	<person id="20">
		<plan score="63.40802725127787" selected="yes">
			<activity type="h" link="1" x="-25000.0" y="0.0" end_time="06:00:00" >
			</activity>
			<leg mode="car">
				<route type="links" start_link="1" end_link="20" trav_time="undefined" distance="25000.0">1 6 15 20</route>
			</leg>
			<activity type="w" link="20" x="10000.0" y="0.0" max_dur="00:30:00" >
			</activity>
			<leg mode="car">
				<route type="links" start_link="20" end_link="1" trav_time="undefined" distance="65000.0">20 21 22 23 1</route>
			</leg>
			<activity type="h" link="1" x="-25000.0" y="0.0" >
			</activity>
		</plan>

	</person>

<!-- ====================================================================== -->

	<person id="21">
		<plan score="63.41824684170545" selected="yes">
			<activity type="h" link="1" x="-25000.0" y="0.0" end_time="06:00:00" >
			</activity>
			<leg mode="car">
				<route type="links" start_link="1" end_link="20" trav_time="undefined" distance="25000.0">1 6 15 20</route>
			</leg>
			<activity type="w" link="20" x="10000.0" y="0.0" max_dur="00:30:00" >
			</activity>
			<leg mode="car">
				<route type="links" start_link="20" end_link="1" trav_time="undefined" distance="65000.0">20 21 22 23 1</route>
			</leg>
			<activity type="h" link="1" x="-25000.0" y="0.0" >
			</activity>
		</plan>

	</person>

<!-- ====================================================================== -->

	<person id="22">
		<plan score="63.425911419475014" selected="yes">
			<activity type="h" link="1" x="-25000.0" y="0.0" end_time="06:00:00" >
			</activity>
			<leg mode="car">
				<route type="links" start_link="1" end_link="20" trav_time="undefined" distance="25000.0">1 6 15 20</route>
			</leg>
			<activity type="w" link="20" x="10000.0" y="0.0" max_dur="00:30:00" >
			</activity>
			<leg mode="car">
				<route type="links" start_link="20" end_link="1" trav_time="undefined" distance="65000.0">20 21 22 23 1</route>
			</leg>
			<activity type="h" link="1" x="-25000.0" y="0.0" >
			</activity>
		</plan>

	</person>

<!-- ====================================================================== -->

	<person id="23">
		<plan score="63.436130703113555" selected="yes">
			<activity type="h" link="1" x="-25000.0" y="0.0" end_time="06:00:00" >
			</activity>
			<leg mode="car">
				<route type="links" start_link="1" end_link="20" trav_time="undefined" distance="25000.0">1 6 15 20</route>
			</leg>
			<activity type="w" link="20" x="10000.0" y="0.0" max_dur="00:30:00" >
			</activity>
			<leg mode="car">
				<route type="links" start_link="20" end_link="1" trav_time="undefined" distance="65000.0">20 21 22 23 1</route>
			</leg>
			<activity type="h" link="1" x="-25000.0" y="0.0" >
			</activity>
		</plan>

	</person>

<!-- ====================================================================== -->

	<person id="24">
		<plan score="63.446349811467854" selected="yes">
			<activity type="h" link="1" x="-25000.0" y="0.0" end_time="06:00:00" >
			</activity>
			<leg mode="car">
				<route type="links" start_link="1" end_link="20" trav_time="undefined" distance="25000.0">1 6 15 20</route>
			</leg>
			<activity type="w" link="20" x="10000.0" y="0.0" max_dur="00:30:00" >
			</activity>
			<leg mode="car">
				<route type="links" start_link="20" end_link="1" trav_time="undefined" distance="65000.0">20 21 22 23 1</route>
			</leg>
			<activity type="h" link="1" x="-25000.0" y="0.0" >
			</activity>
		</plan>

	</person>

<!-- ====================================================================== -->

	<person id="25">
		<plan score="63.45401402771371" selected="yes">
			<activity type="h" link="1" x="-25000.0" y="0.0" end_time="06:00:00" >
			</activity>
			<leg mode="car">
				<route type="links" start_link="1" end_link="20" trav_time="undefined" distance="25000.0">1 6 15 20</route>
			</leg>
			<activity type="w" link="20" x="10000.0" y="0.0" max_dur="00:30:00" >
			</activity>
			<leg mode="car">
				<route type="links" start_link="20" end_link="1" trav_time="undefined" distance="65000.0">20 21 22 23 1</route>
			</leg>
			<activity type="h" link="1" x="-25000.0" y="0.0" >
			</activity>
		</plan>

	</person>

<!-- ====================================================================== -->

	<person id="26">
		<plan score="63.464232829362224" selected="yes">
			<activity type="h" link="1" x="-25000.0" y="0.0" end_time="06:00:00" >
			</activity>
			<leg mode="car">
				<route type="links" start_link="1" end_link="20" trav_time="undefined" distance="25000.0">1 6 15 20</route>
			</leg>
			<activity type="w" link="20" x="10000.0" y="0.0" max_dur="00:30:00" >
			</activity>
			<leg mode="car">
				<route type="links" start_link="20" end_link="1" trav_time="undefined" distance="65000.0">20 21 22 23 1</route>
			</leg>
			<activity type="h" link="1" x="-25000.0" y="0.0" >
			</activity>
		</plan>

	</person>

<!-- ====================================================================== -->

	<person id="27">
		<plan score="63.47189681559861" selected="yes">
			<activity type="h" link="1" x="-25000.0" y="0.0" end_time="06:00:00" >
			</activity>
			<leg mode="car">
				<route type="links" start_link="1" end_link="20" trav_time="undefined" distance="25000.0">1 6 15 20</route>
			</leg>
			<activity type="w" link="20" x="10000.0" y="0.0" max_dur="00:30:00" >
			</activity>
			<leg mode="car">
				<route type="links" start_link="20" end_link="1" trav_time="undefined" distance="65000.0">20 21 22 23 1</route>
			</leg>
			<activity type="h" link="1" x="-25000.0" y="0.0" >
			</activity>
		</plan>

	</person>

<!-- ====================================================================== -->

	<person id="28">
		<plan score="63.48211531059428" selected="yes">
			<activity type="h" link="1" x="-25000.0" y="0.0" end_time="06:00:00" >
			</activity>
			<leg mode="car">
				<route type="links" start_link="1" end_link="20" trav_time="undefined" distance="25000.0">1 6 15 20</route>
			</leg>
			<activity type="w" link="20" x="10000.0" y="0.0" max_dur="00:30:00" >
			</activity>
			<leg mode="car">
				<route type="links" start_link="20" end_link="1" trav_time="undefined" distance="65000.0">20 21 22 23 1</route>
			</leg>
			<activity type="h" link="1" x="-25000.0" y="0.0" >
			</activity>
		</plan>

	</person>

<!-- ====================================================================== -->

	<person id="29">
		<plan score="63.49233363038355" selected="yes">
			<activity type="h" link="1" x="-25000.0" y="0.0" end_time="06:00:00" >
			</activity>
			<leg mode="car">
				<route type="links" start_link="1" end_link="20" trav_time="undefined" distance="25000.0">1 6 15 20</route>
			</leg>
			<activity type="w" link="20" x="10000.0" y="0.0" max_dur="00:30:00" >
			</activity>
			<leg mode="car">
				<route type="links" start_link="20" end_link="1" trav_time="undefined" distance="65000.0">20 21 22 23 1</route>
			</leg>
			<activity type="h" link="1" x="-25000.0" y="0.0" >
			</activity>
		</plan>

	</person>

<!-- ====================================================================== -->

	<person id="3">
		<plan score="72.74516582674941" selected="yes">
			<activity type="h" link="1" x="-25000.0" y="0.0" end_time="05:58:30" >
			</activity>
			<leg mode="car">
				<route type="links" start_link="1" end_link="20" trav_time="undefined" distance="25000.0">1 6 15 20</route>
			</leg>
			<activity type="w" link="20" x="10000.0" y="0.0" max_dur="01:30:00" >
			</activity>
			<leg mode="car">
				<route type="links" start_link="20" end_link="1" trav_time="undefined" distance="65000.0">20 21 22 23 1</route>
			</leg>
			<activity type="h" link="1" x="-25000.0" y="0.0" >
			</activity>
		</plan>

	</person>

<!-- ====================================================================== -->

	<person id="30">
		<plan score="63.49999725525669" selected="yes">
			<activity type="h" link="1" x="-25000.0" y="0.0" end_time="06:00:00" >
			</activity>
			<leg mode="car">
				<route type="links" start_link="1" end_link="20" trav_time="undefined" distance="25000.0">1 6 15 20</route>
			</leg>
			<activity type="w" link="20" x="10000.0" y="0.0" max_dur="00:30:00" >
			</activity>
			<leg mode="car">
				<route type="links" start_link="20" end_link="1" trav_time="undefined" distance="65000.0">20 21 22 23 1</route>
			</leg>
			<activity type="h" link="1" x="-25000.0" y="0.0" >
			</activity>
		</plan>

	</person>

<!-- ====================================================================== -->

	<person id="31">
		<plan score="63.51021526847631" selected="yes">
			<activity type="h" link="1" x="-25000.0" y="0.0" end_time="06:00:00" >
			</activity>
			<leg mode="car">
				<route type="links" start_link="1" end_link="20" trav_time="undefined" distance="25000.0">1 6 15 20</route>
			</leg>
			<activity type="w" link="20" x="10000.0" y="0.0" max_dur="00:30:00" >
			</activity>
			<leg mode="car">
				<route type="links" start_link="20" end_link="1" trav_time="undefined" distance="65000.0">20 21 22 23 1</route>
			</leg>
			<activity type="h" link="1" x="-25000.0" y="0.0" >
			</activity>
		</plan>

	</person>

<!-- ====================================================================== -->

	<person id="32">
		<plan score="63.517878663442076" selected="yes">
			<activity type="h" link="1" x="-25000.0" y="0.0" end_time="06:00:00" >
			</activity>
			<leg mode="car">
				<route type="links" start_link="1" end_link="20" trav_time="undefined" distance="25000.0">1 6 15 20</route>
			</leg>
			<activity type="w" link="20" x="10000.0" y="0.0" max_dur="00:30:00" >
			</activity>
			<leg mode="car">
				<route type="links" start_link="20" end_link="1" trav_time="undefined" distance="65000.0">20 21 22 23 1</route>
			</leg>
			<activity type="h" link="1" x="-25000.0" y="0.0" >
			</activity>
		</plan>

	</person>

<!-- ====================================================================== -->

	<person id="33">
		<plan score="63.52809637014495" selected="yes">
			<activity type="h" link="1" x="-25000.0" y="0.0" end_time="06:00:00" >
			</activity>
			<leg mode="car">
				<route type="links" start_link="1" end_link="20" trav_time="undefined" distance="25000.0">1 6 15 20</route>
			</leg>
			<activity type="w" link="20" x="10000.0" y="0.0" max_dur="00:30:00" >
			</activity>
			<leg mode="car">
				<route type="links" start_link="20" end_link="1" trav_time="undefined" distance="65000.0">20 21 22 23 1</route>
			</leg>
			<activity type="h" link="1" x="-25000.0" y="0.0" >
			</activity>
		</plan>

	</person>

<!-- ====================================================================== -->

	<person id="34">
		<plan score="63.538313901719185" selected="yes">
			<activity type="h" link="1" x="-25000.0" y="0.0" end_time="06:00:00" >
			</activity>
			<leg mode="car">
				<route type="links" start_link="1" end_link="20" trav_time="undefined" distance="25000.0">1 6 15 20</route>
			</leg>
			<activity type="w" link="20" x="10000.0" y="0.0" max_dur="00:30:00" >
			</activity>
			<leg mode="car">
				<route type="links" start_link="20" end_link="1" trav_time="undefined" distance="65000.0">20 21 22 23 1</route>
			</leg>
			<activity type="h" link="1" x="-25000.0" y="0.0" >
			</activity>
		</plan>

	</person>

<!-- ====================================================================== -->

	<person id="35">
		<plan score="63.545976935482074" selected="yes">
			<activity type="h" link="1" x="-25000.0" y="0.0" end_time="06:00:00" >
			</activity>
			<leg mode="car">
				<route type="links" start_link="1" end_link="20" trav_time="undefined" distance="25000.0">1 6 15 20</route>
			</leg>
			<activity type="w" link="20" x="10000.0" y="0.0" max_dur="00:30:00" >
			</activity>
			<leg mode="car">
				<route type="links" start_link="20" end_link="1" trav_time="undefined" distance="65000.0">20 21 22 23 1</route>
			</leg>
			<activity type="h" link="1" x="-25000.0" y="0.0" >
			</activity>
		</plan>

	</person>

<!-- ====================================================================== -->

	<person id="36">
		<plan score="63.55619416062273" selected="yes">
			<activity type="h" link="1" x="-25000.0" y="0.0" end_time="06:00:00" >
			</activity>
			<leg mode="car">
				<route type="links" start_link="1" end_link="20" trav_time="undefined" distance="25000.0">1 6 15 20</route>
			</leg>
			<activity type="w" link="20" x="10000.0" y="0.0" max_dur="00:30:00" >
			</activity>
			<leg mode="car">
				<route type="links" start_link="20" end_link="1" trav_time="undefined" distance="65000.0">20 21 22 23 1</route>
			</leg>
			<activity type="h" link="1" x="-25000.0" y="0.0" >
			</activity>
		</plan>

	</person>

<!-- ====================================================================== -->

	<person id="37">
		<plan score="63.563856964580246" selected="yes">
			<activity type="h" link="1" x="-25000.0" y="0.0" end_time="06:00:00" >
			</activity>
			<leg mode="car">
				<route type="links" start_link="1" end_link="20" trav_time="undefined" distance="25000.0">1 6 15 20</route>
			</leg>
			<activity type="w" link="20" x="10000.0" y="0.0" max_dur="00:30:00" >
			</activity>
			<leg mode="car">
				<route type="links" start_link="20" end_link="1" trav_time="undefined" distance="65000.0">20 21 22 23 1</route>
			</leg>
			<activity type="h" link="1" x="-25000.0" y="0.0" >
			</activity>
		</plan>

	</person>

<!-- ====================================================================== -->

	<person id="38">
		<plan score="63.574073883340176" selected="yes">
			<activity type="h" link="1" x="-25000.0" y="0.0" end_time="06:00:00" >
			</activity>
			<leg mode="car">
				<route type="links" start_link="1" end_link="20" trav_time="undefined" distance="25000.0">1 6 15 20</route>
			</leg>
			<activity type="w" link="20" x="10000.0" y="0.0" max_dur="00:30:00" >
			</activity>
			<leg mode="car">
				<route type="links" start_link="20" end_link="1" trav_time="undefined" distance="65000.0">20 21 22 23 1</route>
			</leg>
			<activity type="h" link="1" x="-25000.0" y="0.0" >
			</activity>
		</plan>

	</person>

<!-- ====================================================================== -->

	<person id="39">
		<plan score="63.58429062704919" selected="yes">
			<activity type="h" link="1" x="-25000.0" y="0.0" end_time="06:00:00" >
			</activity>
			<leg mode="car">
				<route type="links" start_link="1" end_link="20" trav_time="undefined" distance="25000.0">1 6 15 20</route>
			</leg>
			<activity type="w" link="20" x="10000.0" y="0.0" max_dur="00:30:00" >
			</activity>
			<leg mode="car">
				<route type="links" start_link="20" end_link="1" trav_time="undefined" distance="65000.0">20 21 22 23 1</route>
			</leg>
			<activity type="h" link="1" x="-25000.0" y="0.0" >
			</activity>
		</plan>

	</person>

<!-- ====================================================================== -->

	<person id="4">
		<plan score="85.91372377993955" selected="yes">
			<activity type="h" link="1" x="-25000.0" y="0.0" end_time="05:59:30" >
			</activity>
			<leg mode="car">
				<route type="links" start_link="1" end_link="20" trav_time="undefined" distance="25000.0">1 6 15 20</route>
			</leg>
			<activity type="w" link="20" x="10000.0" y="0.0" max_dur="02:30:00" >
			</activity>
			<leg mode="car">
				<route type="links" start_link="20" end_link="1" trav_time="undefined" distance="65000.0">20 21 22 23 1</route>
			</leg>
			<activity type="h" link="1" x="-25000.0" y="0.0" >
			</activity>
		</plan>

	</person>

<!-- ====================================================================== -->

	<person id="40">
		<plan score="63.59195306996412" selected="yes">
			<activity type="h" link="1" x="-25000.0" y="0.0" end_time="06:00:00" >
			</activity>
			<leg mode="car">
				<route type="links" start_link="1" end_link="20" trav_time="undefined" distance="25000.0">1 6 15 20</route>
			</leg>
			<activity type="w" link="20" x="10000.0" y="0.0" max_dur="00:30:00" >
			</activity>
			<leg mode="car">
				<route type="links" start_link="20" end_link="1" trav_time="undefined" distance="65000.0">20 21 22 23 1</route>
			</leg>
			<activity type="h" link="1" x="-25000.0" y="0.0" >
			</activity>
		</plan>

	</person>

<!-- ====================================================================== -->

	<person id="41">
		<plan score="63.60216950737548" selected="yes">
			<activity type="h" link="1" x="-25000.0" y="0.0" end_time="06:00:00" >
			</activity>
			<leg mode="car">
				<route type="links" start_link="1" end_link="20" trav_time="undefined" distance="25000.0">1 6 15 20</route>
			</leg>
			<activity type="w" link="20" x="10000.0" y="0.0" max_dur="00:30:00" >
			</activity>
			<leg mode="car">
				<route type="links" start_link="20" end_link="1" trav_time="undefined" distance="65000.0">20 21 22 23 1</route>
			</leg>
			<activity type="h" link="1" x="-25000.0" y="0.0" >
			</activity>
		</plan>

	</person>

<!-- ====================================================================== -->

	<person id="42">
		<plan score="63.609831720587" selected="yes">
			<activity type="h" link="1" x="-25000.0" y="0.0" end_time="06:00:00" >
			</activity>
			<leg mode="car">
				<route type="links" start_link="1" end_link="20" trav_time="undefined" distance="25000.0">1 6 15 20</route>
			</leg>
			<activity type="w" link="20" x="10000.0" y="0.0" max_dur="00:30:00" >
			</activity>
			<leg mode="car">
				<route type="links" start_link="20" end_link="1" trav_time="undefined" distance="65000.0">20 21 22 23 1</route>
			</leg>
			<activity type="h" link="1" x="-25000.0" y="0.0" >
			</activity>
		</plan>

	</person>

<!-- ====================================================================== -->

	<person id="43">
		<plan score="63.6200478517536" selected="yes">
			<activity type="h" link="1" x="-25000.0" y="0.0" end_time="06:00:00" >
			</activity>
			<leg mode="car">
				<route type="links" start_link="1" end_link="20" trav_time="undefined" distance="25000.0">1 6 15 20</route>
			</leg>
			<activity type="w" link="20" x="10000.0" y="0.0" max_dur="00:30:00" >
			</activity>
			<leg mode="car">
				<route type="links" start_link="20" end_link="1" trav_time="undefined" distance="65000.0">20 21 22 23 1</route>
			</leg>
			<activity type="h" link="1" x="-25000.0" y="0.0" >
			</activity>
		</plan>

	</person>

<!-- ====================================================================== -->

	<person id="44">
		<plan score="63.63026380794687" selected="yes">
			<activity type="h" link="1" x="-25000.0" y="0.0" end_time="06:00:00" >
			</activity>
			<leg mode="car">
				<route type="links" start_link="1" end_link="20" trav_time="undefined" distance="25000.0">1 6 15 20</route>
			</leg>
			<activity type="w" link="20" x="10000.0" y="0.0" max_dur="00:30:00" >
			</activity>
			<leg mode="car">
				<route type="links" start_link="20" end_link="1" trav_time="undefined" distance="65000.0">20 21 22 23 1</route>
			</leg>
			<activity type="h" link="1" x="-25000.0" y="0.0" >
			</activity>
		</plan>

	</person>

<!-- ====================================================================== -->

	<person id="45">
		<plan score="63.63792566027598" selected="yes">
			<activity type="h" link="1" x="-25000.0" y="0.0" end_time="06:00:00" >
			</activity>
			<leg mode="car">
				<route type="links" start_link="1" end_link="20" trav_time="undefined" distance="25000.0">1 6 15 20</route>
			</leg>
			<activity type="w" link="20" x="10000.0" y="0.0" max_dur="00:30:00" >
			</activity>
			<leg mode="car">
				<route type="links" start_link="20" end_link="1" trav_time="undefined" distance="65000.0">20 21 22 23 1</route>
			</leg>
			<activity type="h" link="1" x="-25000.0" y="0.0" >
			</activity>
		</plan>

	</person>

<!-- ====================================================================== -->

	<person id="46">
		<plan score="63.64814131030751" selected="yes">
			<activity type="h" link="1" x="-25000.0" y="0.0" end_time="06:00:00" >
			</activity>
			<leg mode="car">
				<route type="links" start_link="1" end_link="20" trav_time="undefined" distance="25000.0">1 6 15 20</route>
			</leg>
			<activity type="w" link="20" x="10000.0" y="0.0" max_dur="00:30:00" >
			</activity>
			<leg mode="car">
				<route type="links" start_link="20" end_link="1" trav_time="undefined" distance="65000.0">20 21 22 23 1</route>
			</leg>
			<activity type="h" link="1" x="-25000.0" y="0.0" >
			</activity>
		</plan>

	</person>

<!-- ====================================================================== -->

	<person id="47">
		<plan score="63.65580293303511" selected="yes">
			<activity type="h" link="1" x="-25000.0" y="0.0" end_time="06:00:00" >
			</activity>
			<leg mode="car">
				<route type="links" start_link="1" end_link="20" trav_time="undefined" distance="25000.0">1 6 15 20</route>
			</leg>
			<activity type="w" link="20" x="10000.0" y="0.0" max_dur="00:30:00" >
			</activity>
			<leg mode="car">
				<route type="links" start_link="20" end_link="1" trav_time="undefined" distance="65000.0">20 21 22 23 1</route>
			</leg>
			<activity type="h" link="1" x="-25000.0" y="0.0" >
			</activity>
		</plan>

	</person>

<!-- ====================================================================== -->

	<person id="48">
		<plan score="63.6660182769577" selected="yes">
			<activity type="h" link="1" x="-25000.0" y="0.0" end_time="06:00:00" >
			</activity>
			<leg mode="car">
				<route type="links" start_link="1" end_link="20" trav_time="undefined" distance="25000.0">1 6 15 20</route>
			</leg>
			<activity type="w" link="20" x="10000.0" y="0.0" max_dur="00:30:00" >
			</activity>
			<leg mode="car">
				<route type="links" start_link="20" end_link="1" trav_time="undefined" distance="65000.0">20 21 22 23 1</route>
			</leg>
			<activity type="h" link="1" x="-25000.0" y="0.0" >
			</activity>
		</plan>

	</person>

<!-- ====================================================================== -->

	<person id="49">
		<plan score="63.676233445984586" selected="yes">
			<activity type="h" link="1" x="-25000.0" y="0.0" end_time="06:00:00" >
			</activity>
			<leg mode="car">
				<route type="links" start_link="1" end_link="20" trav_time="undefined" distance="25000.0">1 6 15 20</route>
			</leg>
			<activity type="w" link="20" x="10000.0" y="0.0" max_dur="00:30:00" >
			</activity>
			<leg mode="car">
				<route type="links" start_link="20" end_link="1" trav_time="undefined" distance="65000.0">20 21 22 23 1</route>
			</leg>
			<activity type="h" link="1" x="-25000.0" y="0.0" >
			</activity>
		</plan>

	</person>

<!-- ====================================================================== -->

	<person id="5">
		<plan score="122.00242596127049" selected="yes">
			<activity type="h" link="1" x="-25000.0" y="0.0" end_time="06:00:00" >
			</activity>
			<leg mode="car">
				<route type="links" start_link="1" end_link="20" trav_time="undefined" distance="25000.0">1 6 15 20</route>
			</leg>
			<activity type="w" link="20" x="10000.0" y="0.0" max_dur="06:30:00" >
			</activity>
			<leg mode="car">
				<route type="links" start_link="20" end_link="1" trav_time="undefined" distance="65000.0">20 21 22 23 1</route>
			</leg>
			<activity type="h" link="1" x="-25000.0" y="0.0" >
			</activity>
		</plan>

	</person>

<!-- ====================================================================== -->

	<person id="50">
		<plan score="63.69410957099073" selected="yes">
			<activity type="h" link="1" x="-25000.0" y="0.0" end_time="06:00:00" >
			</activity>
			<leg mode="car">
				<route type="links" start_link="1" end_link="20" trav_time="undefined" distance="25000.0">1 6 15 20</route>
			</leg>
			<activity type="w" link="20" x="10000.0" y="0.0" max_dur="00:30:00" >
			</activity>
			<leg mode="car">
				<route type="links" start_link="20" end_link="1" trav_time="undefined" distance="65000.0">20 21 22 23 1</route>
			</leg>
			<activity type="h" link="1" x="-25000.0" y="0.0" >
			</activity>
		</plan>

	</person>

<!-- ====================================================================== -->

	<person id="51">
		<plan score="63.70177060349631" selected="yes">
			<activity type="h" link="1" x="-25000.0" y="0.0" end_time="06:00:00" >
			</activity>
			<leg mode="car">
				<route type="links" start_link="1" end_link="20" trav_time="undefined" distance="25000.0">1 6 15 20</route>
			</leg>
			<activity type="w" link="20" x="10000.0" y="0.0" max_dur="00:30:00" >
			</activity>
			<leg mode="car">
				<route type="links" start_link="20" end_link="1" trav_time="undefined" distance="65000.0">20 21 22 23 1</route>
			</leg>
			<activity type="h" link="1" x="-25000.0" y="0.0" >
			</activity>
		</plan>

	</person>

<!-- ====================================================================== -->

	<person id="52">
		<plan score="63.71198516052401" selected="yes">
			<activity type="h" link="1" x="-25000.0" y="0.0" end_time="06:00:00" >
			</activity>
			<leg mode="car">
				<route type="links" start_link="1" end_link="20" trav_time="undefined" distance="25000.0">1 6 15 20</route>
			</leg>
			<activity type="w" link="20" x="10000.0" y="0.0" max_dur="00:30:00" >
			</activity>
			<leg mode="car">
				<route type="links" start_link="20" end_link="1" trav_time="undefined" distance="65000.0">20 21 22 23 1</route>
			</leg>
			<activity type="h" link="1" x="-25000.0" y="0.0" >
			</activity>
		</plan>

	</person>

<!-- ====================================================================== -->

	<person id="53">
		<plan score="63.722199542733605" selected="yes">
			<activity type="h" link="1" x="-25000.0" y="0.0" end_time="06:00:00" >
			</activity>
			<leg mode="car">
				<route type="links" start_link="1" end_link="20" trav_time="undefined" distance="25000.0">1 6 15 20</route>
			</leg>
			<activity type="w" link="20" x="10000.0" y="0.0" max_dur="00:30:00" >
			</activity>
			<leg mode="car">
				<route type="links" start_link="20" end_link="1" trav_time="undefined" distance="65000.0">20 21 22 23 1</route>
			</leg>
			<activity type="h" link="1" x="-25000.0" y="0.0" >
			</activity>
		</plan>

	</person>

<!-- ====================================================================== -->

	<person id="54">
		<plan score="63.729860214676755" selected="yes">
			<activity type="h" link="1" x="-25000.0" y="0.0" end_time="06:00:00" >
			</activity>
			<leg mode="car">
				<route type="links" start_link="1" end_link="20" trav_time="undefined" distance="25000.0">1 6 15 20</route>
			</leg>
			<activity type="w" link="20" x="10000.0" y="0.0" max_dur="00:30:00" >
			</activity>
			<leg mode="car">
				<route type="links" start_link="20" end_link="1" trav_time="undefined" distance="65000.0">20 21 22 23 1</route>
			</leg>
			<activity type="h" link="1" x="-25000.0" y="0.0" >
			</activity>
		</plan>

	</person>

<!-- ====================================================================== -->

	<person id="55">
		<plan score="63.740074290996034" selected="yes">
			<activity type="h" link="1" x="-25000.0" y="0.0" end_time="06:00:00" >
			</activity>
			<leg mode="car">
				<route type="links" start_link="1" end_link="20" trav_time="undefined" distance="25000.0">1 6 15 20</route>
			</leg>
			<activity type="w" link="20" x="10000.0" y="0.0" max_dur="00:30:00" >
			</activity>
			<leg mode="car">
				<route type="links" start_link="20" end_link="1" trav_time="undefined" distance="65000.0">20 21 22 23 1</route>
			</leg>
			<activity type="h" link="1" x="-25000.0" y="0.0" >
			</activity>
		</plan>

	</person>

<!-- ====================================================================== -->

	<person id="56">
		<plan score="63.74773473354126" selected="yes">
			<activity type="h" link="1" x="-25000.0" y="0.0" end_time="06:00:00" >
			</activity>
			<leg mode="car">
				<route type="links" start_link="1" end_link="20" trav_time="undefined" distance="25000.0">1 6 15 20</route>
			</leg>
			<activity type="w" link="20" x="10000.0" y="0.0" max_dur="00:30:00" >
			</activity>
			<leg mode="car">
				<route type="links" start_link="20" end_link="1" trav_time="undefined" distance="65000.0">20 21 22 23 1</route>
			</leg>
			<activity type="h" link="1" x="-25000.0" y="0.0" >
			</activity>
		</plan>

	</person>

<!-- ====================================================================== -->

	<person id="57">
		<plan score="63.757948504023005" selected="yes">
			<activity type="h" link="1" x="-25000.0" y="0.0" end_time="06:00:00" >
			</activity>
			<leg mode="car">
				<route type="links" start_link="1" end_link="20" trav_time="undefined" distance="25000.0">1 6 15 20</route>
			</leg>
			<activity type="w" link="20" x="10000.0" y="0.0" max_dur="00:30:00" >
			</activity>
			<leg mode="car">
				<route type="links" start_link="20" end_link="1" trav_time="undefined" distance="65000.0">20 21 22 23 1</route>
			</leg>
			<activity type="h" link="1" x="-25000.0" y="0.0" >
			</activity>
		</plan>

	</person>

<!-- ====================================================================== -->

	<person id="58">
		<plan score="63.76816209976411" selected="yes">
			<activity type="h" link="1" x="-25000.0" y="0.0" end_time="06:00:00" >
			</activity>
			<leg mode="car">
				<route type="links" start_link="1" end_link="20" trav_time="undefined" distance="25000.0">1 6 15 20</route>
			</leg>
			<activity type="w" link="20" x="10000.0" y="0.0" max_dur="00:30:00" >
			</activity>
			<leg mode="car">
				<route type="links" start_link="20" end_link="1" trav_time="undefined" distance="65000.0">20 21 22 23 1</route>
			</leg>
			<activity type="h" link="1" x="-25000.0" y="0.0" >
			</activity>
		</plan>

	</person>

<!-- ====================================================================== -->

	<person id="59">
		<plan score="63.77582218190677" selected="yes">
			<activity type="h" link="1" x="-25000.0" y="0.0" end_time="06:00:00" >
			</activity>
			<leg mode="car">
				<route type="links" start_link="1" end_link="20" trav_time="undefined" distance="25000.0">1 6 15 20</route>
			</leg>
			<activity type="w" link="20" x="10000.0" y="0.0" max_dur="00:30:00" >
			</activity>
			<leg mode="car">
				<route type="links" start_link="20" end_link="1" trav_time="undefined" distance="65000.0">20 21 22 23 1</route>
			</leg>
			<activity type="h" link="1" x="-25000.0" y="0.0" >
			</activity>
		</plan>

	</person>

<!-- ====================================================================== -->

	<person id="6">
		<plan score="63.7860354718932" selected="yes">
			<activity type="h" link="1" x="-25000.0" y="0.0" end_time="06:00:00" >
			</activity>
			<leg mode="car">
				<route type="links" start_link="1" end_link="20" trav_time="undefined" distance="25000.0">1 6 15 20</route>
			</leg>
			<activity type="w" link="20" x="10000.0" y="0.0" max_dur="00:30:00" >
			</activity>
			<leg mode="car">
				<route type="links" start_link="20" end_link="1" trav_time="undefined" distance="65000.0">20 21 22 23 1</route>
			</leg>
			<activity type="h" link="1" x="-25000.0" y="0.0" >
			</activity>
		</plan>

	</person>

<!-- ====================================================================== -->

	<person id="60">
		<plan score="63.793695324739616" selected="yes">
			<activity type="h" link="1" x="-25000.0" y="0.0" end_time="06:00:00" >
			</activity>
			<leg mode="car">
				<route type="links" start_link="1" end_link="20" trav_time="undefined" distance="25000.0">1 6 15 20</route>
			</leg>
			<activity type="w" link="20" x="10000.0" y="0.0" max_dur="00:30:00" >
			</activity>
			<leg mode="car">
				<route type="links" start_link="20" end_link="1" trav_time="undefined" distance="65000.0">20 21 22 23 1</route>
			</leg>
			<activity type="h" link="1" x="-25000.0" y="0.0" >
			</activity>
		</plan>

	</person>

<!-- ====================================================================== -->

	<person id="61">
		<plan score="63.80390830902406" selected="yes">
			<activity type="h" link="1" x="-25000.0" y="0.0" end_time="06:00:00" >
			</activity>
			<leg mode="car">
				<route type="links" start_link="1" end_link="20" trav_time="undefined" distance="25000.0">1 6 15 20</route>
			</leg>
			<activity type="w" link="20" x="10000.0" y="0.0" max_dur="00:30:00" >
			</activity>
			<leg mode="car">
				<route type="links" start_link="20" end_link="1" trav_time="undefined" distance="65000.0">20 21 22 23 1</route>
			</leg>
			<activity type="h" link="1" x="-25000.0" y="0.0" >
			</activity>
		</plan>

	</person>

<!-- ====================================================================== -->

	<person id="62">
		<plan score="63.814121118645346" selected="yes">
			<activity type="h" link="1" x="-25000.0" y="0.0" end_time="06:00:00" >
			</activity>
			<leg mode="car">
				<route type="links" start_link="1" end_link="20" trav_time="undefined" distance="25000.0">1 6 15 20</route>
			</leg>
			<activity type="w" link="20" x="10000.0" y="0.0" max_dur="00:30:00" >
			</activity>
			<leg mode="car">
				<route type="links" start_link="20" end_link="1" trav_time="undefined" distance="65000.0">20 21 22 23 1</route>
			</leg>
			<activity type="h" link="1" x="-25000.0" y="0.0" >
			</activity>
		</plan>

	</person>

<!-- ====================================================================== -->

	<person id="63">
		<plan score="63.82178061124892" selected="yes">
			<activity type="h" link="1" x="-25000.0" y="0.0" end_time="06:00:00" >
			</activity>
			<leg mode="car">
				<route type="links" start_link="1" end_link="20" trav_time="undefined" distance="25000.0">1 6 15 20</route>
			</leg>
			<activity type="w" link="20" x="10000.0" y="0.0" max_dur="00:30:00" >
			</activity>
			<leg mode="car">
				<route type="links" start_link="20" end_link="1" trav_time="undefined" distance="65000.0">20 21 22 23 1</route>
			</leg>
			<activity type="h" link="1" x="-25000.0" y="0.0" >
			</activity>
		</plan>

	</person>

<!-- ====================================================================== -->

	<person id="64">
		<plan score="63.831993115251024" selected="yes">
			<activity type="h" link="1" x="-25000.0" y="0.0" end_time="06:00:00" >
			</activity>
			<leg mode="car">
				<route type="links" start_link="1" end_link="20" trav_time="undefined" distance="25000.0">1 6 15 20</route>
			</leg>
			<activity type="w" link="20" x="10000.0" y="0.0" max_dur="00:30:00" >
			</activity>
			<leg mode="car">
				<route type="links" start_link="20" end_link="1" trav_time="undefined" distance="65000.0">20 21 22 23 1</route>
			</leg>
			<activity type="h" link="1" x="-25000.0" y="0.0" >
			</activity>
		</plan>

	</person>

<!-- ====================================================================== -->

	<person id="65">
		<plan score="63.83965237865998" selected="yes">
			<activity type="h" link="1" x="-25000.0" y="0.0" end_time="06:00:00" >
			</activity>
			<leg mode="car">
				<route type="links" start_link="1" end_link="20" trav_time="undefined" distance="25000.0">1 6 15 20</route>
			</leg>
			<activity type="w" link="20" x="10000.0" y="0.0" max_dur="00:30:00" >
			</activity>
			<leg mode="car">
				<route type="links" start_link="20" end_link="1" trav_time="undefined" distance="65000.0">20 21 22 23 1</route>
			</leg>
			<activity type="h" link="1" x="-25000.0" y="0.0" >
			</activity>
		</plan>

	</person>

<!-- ====================================================================== -->

	<person id="66">
		<plan score="63.84986457709558" selected="yes">
			<activity type="h" link="1" x="-25000.0" y="0.0" end_time="06:00:00" >
			</activity>
			<leg mode="car">
				<route type="links" start_link="1" end_link="20" trav_time="undefined" distance="25000.0">1 6 15 20</route>
			</leg>
			<activity type="w" link="20" x="10000.0" y="0.0" max_dur="00:30:00" >
			</activity>
			<leg mode="car">
				<route type="links" start_link="20" end_link="1" trav_time="undefined" distance="65000.0">20 21 22 23 1</route>
			</leg>
			<activity type="h" link="1" x="-25000.0" y="0.0" >
			</activity>
		</plan>

	</person>

<!-- ====================================================================== -->

	<person id="67">
		<plan score="63.86007660094539" selected="yes">
			<activity type="h" link="1" x="-25000.0" y="0.0" end_time="06:00:00" >
			</activity>
			<leg mode="car">
				<route type="links" start_link="1" end_link="20" trav_time="undefined" distance="25000.0">1 6 15 20</route>
			</leg>
			<activity type="w" link="20" x="10000.0" y="0.0" max_dur="00:30:00" >
			</activity>
			<leg mode="car">
				<route type="links" start_link="20" end_link="1" trav_time="undefined" distance="65000.0">20 21 22 23 1</route>
			</leg>
			<activity type="h" link="1" x="-25000.0" y="0.0" >
			</activity>
		</plan>

	</person>

<!-- ====================================================================== -->

	<person id="68">
		<plan score="63.86773550427119" selected="yes">
			<activity type="h" link="1" x="-25000.0" y="0.0" end_time="06:00:00" >
			</activity>
			<leg mode="car">
				<route type="links" start_link="1" end_link="20" trav_time="undefined" distance="25000.0">1 6 15 20</route>
			</leg>
			<activity type="w" link="20" x="10000.0" y="0.0" max_dur="00:30:00" >
			</activity>
			<leg mode="car">
				<route type="links" start_link="20" end_link="1" trav_time="undefined" distance="65000.0">20 21 22 23 1</route>
			</leg>
			<activity type="h" link="1" x="-25000.0" y="0.0" >
			</activity>
		</plan>

	</person>

<!-- ====================================================================== -->

	<person id="69">
		<plan score="63.87794722263723" selected="yes">
			<activity type="h" link="1" x="-25000.0" y="0.0" end_time="06:00:00" >
			</activity>
			<leg mode="car">
				<route type="links" start_link="1" end_link="20" trav_time="undefined" distance="25000.0">1 6 15 20</route>
			</leg>
			<activity type="w" link="20" x="10000.0" y="0.0" max_dur="00:30:00" >
			</activity>
			<leg mode="car">
				<route type="links" start_link="20" end_link="1" trav_time="undefined" distance="65000.0">20 21 22 23 1</route>
			</leg>
			<activity type="h" link="1" x="-25000.0" y="0.0" >
			</activity>
		</plan>

	</person>

<!-- ====================================================================== -->

	<person id="7">
		<plan score="63.88560589686993" selected="yes">
			<activity type="h" link="1" x="-25000.0" y="0.0" end_time="06:00:00" >
			</activity>
			<leg mode="car">
				<route type="links" start_link="1" end_link="20" trav_time="undefined" distance="25000.0">1 6 15 20</route>
			</leg>
			<activity type="w" link="20" x="10000.0" y="0.0" max_dur="00:30:00" >
			</activity>
			<leg mode="car">
				<route type="links" start_link="20" end_link="1" trav_time="undefined" distance="65000.0">20 21 22 23 1</route>
			</leg>
			<activity type="h" link="1" x="-25000.0" y="0.0" >
			</activity>
		</plan>

	</person>

<!-- ====================================================================== -->

	<person id="70">
		<plan score="63.895817309804876" selected="yes">
			<activity type="h" link="1" x="-25000.0" y="0.0" end_time="06:00:00" >
			</activity>
			<leg mode="car">
				<route type="links" start_link="1" end_link="20" trav_time="undefined" distance="25000.0">1 6 15 20</route>
			</leg>
			<activity type="w" link="20" x="10000.0" y="0.0" max_dur="00:30:00" >
			</activity>
			<leg mode="car">
				<route type="links" start_link="20" end_link="1" trav_time="undefined" distance="65000.0">20 21 22 23 1</route>
			</leg>
			<activity type="h" link="1" x="-25000.0" y="0.0" >
			</activity>
		</plan>

	</person>

<!-- ====================================================================== -->

	<person id="71">
		<plan score="63.906028548231376" selected="yes">
			<activity type="h" link="1" x="-25000.0" y="0.0" end_time="06:00:00" >
			</activity>
			<leg mode="car">
				<route type="links" start_link="1" end_link="20" trav_time="undefined" distance="25000.0">1 6 15 20</route>
			</leg>
			<activity type="w" link="20" x="10000.0" y="0.0" max_dur="00:30:00" >
			</activity>
			<leg mode="car">
				<route type="links" start_link="20" end_link="1" trav_time="undefined" distance="65000.0">20 21 22 23 1</route>
			</leg>
			<activity type="h" link="1" x="-25000.0" y="0.0" >
			</activity>
		</plan>

	</person>

<!-- ====================================================================== -->

	<person id="72">
		<plan score="63.913686862540416" selected="yes">
			<activity type="h" link="1" x="-25000.0" y="0.0" end_time="06:00:00" >
			</activity>
			<leg mode="car">
				<route type="links" start_link="1" end_link="20" trav_time="undefined" distance="25000.0">1 6 15 20</route>
			</leg>
			<activity type="w" link="20" x="10000.0" y="0.0" max_dur="00:30:00" >
			</activity>
			<leg mode="car">
				<route type="links" start_link="20" end_link="1" trav_time="undefined" distance="65000.0">20 21 22 23 1</route>
			</leg>
			<activity type="h" link="1" x="-25000.0" y="0.0" >
			</activity>
		</plan>

	</person>

<!-- ====================================================================== -->

	<person id="73">
		<plan score="63.92389779561848" selected="yes">
			<activity type="h" link="1" x="-25000.0" y="0.0" end_time="06:00:00" >
			</activity>
			<leg mode="car">
				<route type="links" start_link="1" end_link="20" trav_time="undefined" distance="25000.0">1 6 15 20</route>
			</leg>
			<activity type="w" link="20" x="10000.0" y="0.0" max_dur="00:30:00" >
			</activity>
			<leg mode="car">
				<route type="links" start_link="20" end_link="1" trav_time="undefined" distance="65000.0">20 21 22 23 1</route>
			</leg>
			<activity type="h" link="1" x="-25000.0" y="0.0" >
			</activity>
		</plan>

	</person>

<!-- ====================================================================== -->

	<person id="74">
		<plan score="63.93155588093593" selected="yes">
			<activity type="h" link="1" x="-25000.0" y="0.0" end_time="06:00:00" >
			</activity>
			<leg mode="car">
				<route type="links" start_link="1" end_link="20" trav_time="undefined" distance="25000.0">1 6 15 20</route>
			</leg>
			<activity type="w" link="20" x="10000.0" y="0.0" max_dur="00:30:00" >
			</activity>
			<leg mode="car">
				<route type="links" start_link="20" end_link="1" trav_time="undefined" distance="65000.0">20 21 22 23 1</route>
			</leg>
			<activity type="h" link="1" x="-25000.0" y="0.0" >
			</activity>
		</plan>

	</person>

<!-- ====================================================================== -->

	<person id="75">
		<plan score="63.941766508718196" selected="yes">
			<activity type="h" link="1" x="-25000.0" y="0.0" end_time="06:00:00" >
			</activity>
			<leg mode="car">
				<route type="links" start_link="1" end_link="20" trav_time="undefined" distance="25000.0">1 6 15 20</route>
			</leg>
			<activity type="w" link="20" x="10000.0" y="0.0" max_dur="00:30:00" >
			</activity>
			<leg mode="car">
				<route type="links" start_link="20" end_link="1" trav_time="undefined" distance="65000.0">20 21 22 23 1</route>
			</leg>
			<activity type="h" link="1" x="-25000.0" y="0.0" >
			</activity>
		</plan>

	</person>

<!-- ====================================================================== -->

	<person id="76">
		<plan score="63.951976962069324" selected="yes">
			<activity type="h" link="1" x="-25000.0" y="0.0" end_time="06:00:00" >
			</activity>
			<leg mode="car">
				<route type="links" start_link="1" end_link="20" trav_time="undefined" distance="25000.0">1 6 15 20</route>
			</leg>
			<activity type="w" link="20" x="10000.0" y="0.0" max_dur="00:30:00" >
			</activity>
			<leg mode="car">
				<route type="links" start_link="20" end_link="1" trav_time="undefined" distance="65000.0">20 21 22 23 1</route>
			</leg>
			<activity type="h" link="1" x="-25000.0" y="0.0" >
			</activity>
		</plan>

	</person>

<!-- ====================================================================== -->

	<person id="77">
		<plan score="63.95963468762254" selected="yes">
			<activity type="h" link="1" x="-25000.0" y="0.0" end_time="06:00:00" >
			</activity>
			<leg mode="car">
				<route type="links" start_link="1" end_link="20" trav_time="undefined" distance="25000.0">1 6 15 20</route>
			</leg>
			<activity type="w" link="20" x="10000.0" y="0.0" max_dur="00:30:00" >
			</activity>
			<leg mode="car">
				<route type="links" start_link="20" end_link="1" trav_time="undefined" distance="65000.0">20 21 22 23 1</route>
			</leg>
			<activity type="h" link="1" x="-25000.0" y="0.0" >
			</activity>
		</plan>

	</person>

<!-- ====================================================================== -->

	<person id="78">
		<plan score="63.96984483576045" selected="yes">
			<activity type="h" link="1" x="-25000.0" y="0.0" end_time="06:00:00" >
			</activity>
			<leg mode="car">
				<route type="links" start_link="1" end_link="20" trav_time="undefined" distance="25000.0">1 6 15 20</route>
			</leg>
			<activity type="w" link="20" x="10000.0" y="0.0" max_dur="00:30:00" >
			</activity>
			<leg mode="car">
				<route type="links" start_link="20" end_link="1" trav_time="undefined" distance="65000.0">20 21 22 23 1</route>
			</leg>
			<activity type="h" link="1" x="-25000.0" y="0.0" >
			</activity>
		</plan>

	</person>

<!-- ====================================================================== -->

	<person id="79">
		<plan score="63.97750233242351" selected="yes">
			<activity type="h" link="1" x="-25000.0" y="0.0" end_time="06:00:00" >
			</activity>
			<leg mode="car">
				<route type="links" start_link="1" end_link="20" trav_time="undefined" distance="25000.0">1 6 15 20</route>
			</leg>
			<activity type="w" link="20" x="10000.0" y="0.0" max_dur="00:30:00" >
			</activity>
			<leg mode="car">
				<route type="links" start_link="20" end_link="1" trav_time="undefined" distance="65000.0">20 21 22 23 1</route>
			</leg>
			<activity type="h" link="1" x="-25000.0" y="0.0" >
			</activity>
		</plan>

	</person>

<!-- ====================================================================== -->

	<person id="8">
		<plan score="63.98771217540082" selected="yes">
			<activity type="h" link="1" x="-25000.0" y="0.0" end_time="06:00:00" >
			</activity>
			<leg mode="car">
				<route type="links" start_link="1" end_link="20" trav_time="undefined" distance="25000.0">1 6 15 20</route>
			</leg>
			<activity type="w" link="20" x="10000.0" y="0.0" max_dur="00:30:00" >
			</activity>
			<leg mode="car">
				<route type="links" start_link="20" end_link="1" trav_time="undefined" distance="65000.0">20 21 22 23 1</route>
			</leg>
			<activity type="h" link="1" x="-25000.0" y="0.0" >
			</activity>
		</plan>

	</person>

<!-- ====================================================================== -->

	<person id="80">
		<plan score="63.99792184402425" selected="yes">
			<activity type="h" link="1" x="-25000.0" y="0.0" end_time="06:00:00" >
			</activity>
			<leg mode="car">
				<route type="links" start_link="1" end_link="20" trav_time="undefined" distance="25000.0">1 6 15 20</route>
			</leg>
			<activity type="w" link="20" x="10000.0" y="0.0" max_dur="00:30:00" >
			</activity>
			<leg mode="car">
				<route type="links" start_link="20" end_link="1" trav_time="undefined" distance="65000.0">20 21 22 23 1</route>
			</leg>
			<activity type="h" link="1" x="-25000.0" y="0.0" >
			</activity>
		</plan>

	</person>

<!-- ====================================================================== -->

	<person id="81">
		<plan score="64.00557898108238" selected="yes">
			<activity type="h" link="1" x="-25000.0" y="0.0" end_time="06:00:00" >
			</activity>
			<leg mode="car">
				<route type="links" start_link="1" end_link="20" trav_time="undefined" distance="25000.0">1 6 15 20</route>
			</leg>
			<activity type="w" link="20" x="10000.0" y="0.0" max_dur="00:30:00" >
			</activity>
			<leg mode="car">
				<route type="links" start_link="20" end_link="1" trav_time="undefined" distance="65000.0">20 21 22 23 1</route>
			</leg>
			<activity type="h" link="1" x="-25000.0" y="0.0" >
			</activity>
		</plan>

	</person>

<!-- ====================================================================== -->

	<person id="82">
		<plan score="64.01578834462775" selected="yes">
			<activity type="h" link="1" x="-25000.0" y="0.0" end_time="06:00:00" >
			</activity>
			<leg mode="car">
				<route type="links" start_link="1" end_link="20" trav_time="undefined" distance="25000.0">1 6 15 20</route>
			</leg>
			<activity type="w" link="20" x="10000.0" y="0.0" max_dur="00:30:00" >
			</activity>
			<leg mode="car">
				<route type="links" start_link="20" end_link="1" trav_time="undefined" distance="65000.0">20 21 22 23 1</route>
			</leg>
			<activity type="h" link="1" x="-25000.0" y="0.0" >
			</activity>
		</plan>

	</person>

<!-- ====================================================================== -->

	<person id="83">
		<plan score="64.02344525289708" selected="yes">
			<activity type="h" link="1" x="-25000.0" y="0.0" end_time="06:00:00" >
			</activity>
			<leg mode="car">
				<route type="links" start_link="1" end_link="20" trav_time="undefined" distance="25000.0">1 6 15 20</route>
			</leg>
			<activity type="w" link="20" x="10000.0" y="0.0" max_dur="00:30:00" >
			</activity>
			<leg mode="car">
				<route type="links" start_link="20" end_link="1" trav_time="undefined" distance="65000.0">20 21 22 23 1</route>
			</leg>
			<activity type="h" link="1" x="-25000.0" y="0.0" >
			</activity>
		</plan>

	</person>

<!-- ====================================================================== -->

	<person id="84">
		<plan score="64.03365431141695" selected="yes">
			<activity type="h" link="1" x="-25000.0" y="0.0" end_time="06:00:00" >
			</activity>
			<leg mode="car">
				<route type="links" start_link="1" end_link="20" trav_time="undefined" distance="25000.0">1 6 15 20</route>
			</leg>
			<activity type="w" link="20" x="10000.0" y="0.0" max_dur="00:30:00" >
			</activity>
			<leg mode="car">
				<route type="links" start_link="20" end_link="1" trav_time="undefined" distance="65000.0">20 21 22 23 1</route>
			</leg>
			<activity type="h" link="1" x="-25000.0" y="0.0" >
			</activity>
		</plan>

	</person>

<!-- ====================================================================== -->

	<person id="85">
		<plan score="64.04386319566014" selected="yes">
			<activity type="h" link="1" x="-25000.0" y="0.0" end_time="06:00:00" >
			</activity>
			<leg mode="car">
				<route type="links" start_link="1" end_link="20" trav_time="undefined" distance="25000.0">1 6 15 20</route>
			</leg>
			<activity type="w" link="20" x="10000.0" y="0.0" max_dur="00:30:00" >
			</activity>
			<leg mode="car">
				<route type="links" start_link="20" end_link="1" trav_time="undefined" distance="65000.0">20 21 22 23 1</route>
			</leg>
			<activity type="h" link="1" x="-25000.0" y="0.0" >
			</activity>
		</plan>

	</person>

<!-- ====================================================================== -->

	<person id="86">
		<plan score="64.05151974448374" selected="yes">
			<activity type="h" link="1" x="-25000.0" y="0.0" end_time="06:00:00" >
			</activity>
			<leg mode="car">
				<route type="links" start_link="1" end_link="20" trav_time="undefined" distance="25000.0">1 6 15 20</route>
			</leg>
			<activity type="w" link="20" x="10000.0" y="0.0" max_dur="00:30:00" >
			</activity>
			<leg mode="car">
				<route type="links" start_link="20" end_link="1" trav_time="undefined" distance="65000.0">20 21 22 23 1</route>
			</leg>
			<activity type="h" link="1" x="-25000.0" y="0.0" >
			</activity>
		</plan>

	</person>

<!-- ====================================================================== -->

	<person id="87">
		<plan score="64.06172832378394" selected="yes">
			<activity type="h" link="1" x="-25000.0" y="0.0" end_time="06:00:00" >
			</activity>
			<leg mode="car">
				<route type="links" start_link="1" end_link="20" trav_time="undefined" distance="25000.0">1 6 15 20</route>
			</leg>
			<activity type="w" link="20" x="10000.0" y="0.0" max_dur="00:30:00" >
			</activity>
			<leg mode="car">
				<route type="links" start_link="20" end_link="1" trav_time="undefined" distance="65000.0">20 21 22 23 1</route>
			</leg>
			<activity type="h" link="1" x="-25000.0" y="0.0" >
			</activity>
		</plan>

	</person>

<!-- ====================================================================== -->

	<person id="88">
		<plan score="64.06938464392" selected="yes">
			<activity type="h" link="1" x="-25000.0" y="0.0" end_time="06:00:00" >
			</activity>
			<leg mode="car">
				<route type="links" start_link="1" end_link="20" trav_time="undefined" distance="25000.0">1 6 15 20</route>
			</leg>
			<activity type="w" link="20" x="10000.0" y="0.0" max_dur="00:30:00" >
			</activity>
			<leg mode="car">
				<route type="links" start_link="20" end_link="1" trav_time="undefined" distance="65000.0">20 21 22 23 1</route>
			</leg>
			<activity type="h" link="1" x="-25000.0" y="0.0" >
			</activity>
		</plan>

	</person>

<!-- ====================================================================== -->

	<person id="89">
		<plan score="64.07959291832974" selected="yes">
			<activity type="h" link="1" x="-25000.0" y="0.0" end_time="06:00:00" >
			</activity>
			<leg mode="car">
				<route type="links" start_link="1" end_link="20" trav_time="undefined" distance="25000.0">1 6 15 20</route>
			</leg>
			<activity type="w" link="20" x="10000.0" y="0.0" max_dur="00:30:00" >
			</activity>
			<leg mode="car">
				<route type="links" start_link="20" end_link="1" trav_time="undefined" distance="65000.0">20 21 22 23 1</route>
			</leg>
			<activity type="h" link="1" x="-25000.0" y="0.0" >
			</activity>
		</plan>

	</person>

<!-- ====================================================================== -->

	<person id="9">
		<plan score="64.0898010185399" selected="yes">
			<activity type="h" link="1" x="-25000.0" y="0.0" end_time="06:00:00" >
			</activity>
			<leg mode="car">
				<route type="links" start_link="1" end_link="20" trav_time="undefined" distance="25000.0">1 6 15 20</route>
			</leg>
			<activity type="w" link="20" x="10000.0" y="0.0" max_dur="00:30:00" >
			</activity>
			<leg mode="car">
				<route type="links" start_link="20" end_link="1" trav_time="undefined" distance="65000.0">20 21 22 23 1</route>
			</leg>
			<activity type="h" link="1" x="-25000.0" y="0.0" >
			</activity>
		</plan>

	</person>

<!-- ====================================================================== -->

	<person id="90">
		<plan score="64.09745697938938" selected="yes">
			<activity type="h" link="1" x="-25000.0" y="0.0" end_time="06:00:00" >
			</activity>
			<leg mode="car">
				<route type="links" start_link="1" end_link="20" trav_time="undefined" distance="25000.0">1 6 15 20</route>
			</leg>
			<activity type="w" link="20" x="10000.0" y="0.0" max_dur="00:30:00" >
			</activity>
			<leg mode="car">
				<route type="links" start_link="20" end_link="1" trav_time="undefined" distance="65000.0">20 21 22 23 1</route>
			</leg>
			<activity type="h" link="1" x="-25000.0" y="0.0" >
			</activity>
		</plan>

	</person>

<!-- ====================================================================== -->

	<person id="91">
		<plan score="64.10766477479154" selected="yes">
			<activity type="h" link="1" x="-25000.0" y="0.0" end_time="06:00:00" >
			</activity>
			<leg mode="car">
				<route type="links" start_link="1" end_link="20" trav_time="undefined" distance="25000.0">1 6 15 20</route>
			</leg>
			<activity type="w" link="20" x="10000.0" y="0.0" max_dur="00:30:00" >
			</activity>
			<leg mode="car">
				<route type="links" start_link="20" end_link="1" trav_time="undefined" distance="65000.0">20 21 22 23 1</route>
			</leg>
			<activity type="h" link="1" x="-25000.0" y="0.0" >
			</activity>
		</plan>

	</person>

<!-- ====================================================================== -->

	<person id="92">
		<plan score="64.11532050705469" selected="yes">
			<activity type="h" link="1" x="-25000.0" y="0.0" end_time="06:00:00" >
			</activity>
			<leg mode="car">
				<route type="links" start_link="1" end_link="20" trav_time="undefined" distance="25000.0">1 6 15 20</route>
			</leg>
			<activity type="w" link="20" x="10000.0" y="0.0" max_dur="00:30:00" >
			</activity>
			<leg mode="car">
				<route type="links" start_link="20" end_link="1" trav_time="undefined" distance="65000.0">20 21 22 23 1</route>
			</leg>
			<activity type="h" link="1" x="-25000.0" y="0.0" >
			</activity>
		</plan>

	</person>

<!-- ====================================================================== -->

	<person id="93">
		<plan score="64.12552799770131" selected="yes">
			<activity type="h" link="1" x="-25000.0" y="0.0" end_time="06:00:00" >
			</activity>
			<leg mode="car">
				<route type="links" start_link="1" end_link="20" trav_time="undefined" distance="25000.0">1 6 15 20</route>
			</leg>
			<activity type="w" link="20" x="10000.0" y="0.0" max_dur="00:30:00" >
			</activity>
			<leg mode="car">
				<route type="links" start_link="20" end_link="1" trav_time="undefined" distance="65000.0">20 21 22 23 1</route>
			</leg>
			<activity type="h" link="1" x="-25000.0" y="0.0" >
			</activity>
		</plan>

	</person>

<!-- ====================================================================== -->

	<person id="94">
		<plan score="64.13573531422547" selected="yes">
			<activity type="h" link="1" x="-25000.0" y="0.0" end_time="06:00:00" >
			</activity>
			<leg mode="car">
				<route type="links" start_link="1" end_link="20" trav_time="undefined" distance="25000.0">1 6 15 20</route>
			</leg>
			<activity type="w" link="20" x="10000.0" y="0.0" max_dur="00:30:00" >
			</activity>
			<leg mode="car">
				<route type="links" start_link="20" end_link="1" trav_time="undefined" distance="65000.0">20 21 22 23 1</route>
			</leg>
			<activity type="h" link="1" x="-25000.0" y="0.0" >
			</activity>
		</plan>

	</person>

<!-- ====================================================================== -->

	<person id="95">
		<plan score="64.143390687361" selected="yes">
			<activity type="h" link="1" x="-25000.0" y="0.0" end_time="06:00:00" >
			</activity>
			<leg mode="car">
				<route type="links" start_link="1" end_link="20" trav_time="undefined" distance="25000.0">1 6 15 20</route>
			</leg>
			<activity type="w" link="20" x="10000.0" y="0.0" max_dur="00:30:00" >
			</activity>
			<leg mode="car">
				<route type="links" start_link="20" end_link="1" trav_time="undefined" distance="65000.0">20 21 22 23 1</route>
			</leg>
			<activity type="h" link="1" x="-25000.0" y="0.0" >
			</activity>
		</plan>

	</person>

<!-- ====================================================================== -->

	<person id="96">
		<plan score="64.15359769921203" selected="yes">
			<activity type="h" link="1" x="-25000.0" y="0.0" end_time="06:00:00" >
			</activity>
			<leg mode="car">
				<route type="links" start_link="1" end_link="20" trav_time="undefined" distance="25000.0">1 6 15 20</route>
			</leg>
			<activity type="w" link="20" x="10000.0" y="0.0" max_dur="00:30:00" >
			</activity>
			<leg mode="car">
				<route type="links" start_link="20" end_link="1" trav_time="undefined" distance="65000.0">20 21 22 23 1</route>
			</leg>
			<activity type="h" link="1" x="-25000.0" y="0.0" >
			</activity>
		</plan>

	</person>

<!-- ====================================================================== -->

	<person id="97">
		<plan score="64.16125284386243" selected="yes">
			<activity type="h" link="1" x="-25000.0" y="0.0" end_time="06:00:00" >
			</activity>
			<leg mode="car">
				<route type="links" start_link="1" end_link="20" trav_time="undefined" distance="25000.0">1 6 15 20</route>
			</leg>
			<activity type="w" link="20" x="10000.0" y="0.0" max_dur="00:30:00" >
			</activity>
			<leg mode="car">
				<route type="links" start_link="20" end_link="1" trav_time="undefined" distance="65000.0">20 21 22 23 1</route>
			</leg>
			<activity type="h" link="1" x="-25000.0" y="0.0" >
			</activity>
		</plan>

	</person>

<!-- ====================================================================== -->

	<person id="98">
		<plan score="64.17145955109275" selected="yes">
			<activity type="h" link="1" x="-25000.0" y="0.0" end_time="06:00:00" >
			</activity>
			<leg mode="car">
				<route type="links" start_link="1" end_link="20" trav_time="undefined" distance="25000.0">1 6 15 20</route>
			</leg>
			<activity type="w" link="20" x="10000.0" y="0.0" max_dur="00:30:00" >
			</activity>
			<leg mode="car">
				<route type="links" start_link="20" end_link="1" trav_time="undefined" distance="65000.0">20 21 22 23 1</route>
			</leg>
			<activity type="h" link="1" x="-25000.0" y="0.0" >
			</activity>
		</plan>

	</person>

<!-- ====================================================================== -->

	<person id="99">
		<plan score="64.17911446729727" selected="yes">
			<activity type="h" link="1" x="-25000.0" y="0.0" end_time="06:00:00" >
			</activity>
			<leg mode="car">
				<route type="links" start_link="1" end_link="20" trav_time="undefined" distance="25000.0">1 6 15 20</route>
			</leg>
			<activity type="w" link="20" x="10000.0" y="0.0" max_dur="00:30:00" >
			</activity>
			<leg mode="car">
				<route type="links" start_link="20" end_link="1" trav_time="undefined" distance="65000.0">20 21 22 23 1</route>
			</leg>
			<activity type="h" link="1" x="-25000.0" y="0.0" >
			</activity>
		</plan>

	</person>

<!-- ====================================================================== -->

</population>
